10

C     -0.82733    0.17440    0.59359
C     -2.19086   -0.33968    0.16271
O     -1.05395    1.18391    1.58324
O     -1.96424   -1.34919   -0.82694
H     -0.29948    0.57967   -0.28078
H     -0.23650   -0.65940    0.99745
H     -2.78188    0.49397   -0.24116
H     -2.71850   -0.74493    1.03723
H     -0.19394    1.52367    1.87166
H     -2.82417   -1.69056   -1.11369
10

C     -0.82651    0.19477    0.56918
C     -2.19392   -0.31601    0.14169
O     -1.03298    1.07413    1.68062
O     -1.97478   -1.44387   -0.71337
H     -0.33417    0.70975   -0.26697
H     -0.20882   -0.66813    0.85452
H     -2.75299    0.47767   -0.37236
H     -2.75296   -0.60332    1.04306
H     -0.18233    1.47643    1.91074
H     -2.83142   -1.72861   -1.06478
10

C     -0.82827    0.23061    0.53897
C     -2.19547   -0.28694    0.10491
O     -1.01377    0.96657    1.75455
O     -1.98487   -1.51513   -0.60280
H     -0.37705    0.85625   -0.24293
H     -0.17829   -0.63967    0.70254
H     -2.71622    0.45103   -0.52007
H     -2.79255   -0.45404    1.01167
H     -0.16889    1.37770    1.99145
H     -2.83585   -1.80664   -0.96312
10

C     -0.83285    0.27074    0.51285
C     -2.19421   -0.26194    0.06385
O     -0.99605    0.85296    1.81321
O     -1.99396   -1.57087   -0.48674
H     -0.43928    1.00843   -0.19949
H     -0.13969   -0.57995    0.54793
H     -2.65944    0.40580   -0.67385
H     -2.84187   -0.30354    0.94938
H     -0.14539    1.23048    2.08429
H     -2.84730   -1.89570   -0.81219
10

C     -0.84440    0.32199    0.48714
C     -2.18653   -0.23736    0.01133
O     -0.99191    0.74189    1.85088
O     -1.99068   -1.60507   -0.37452
H     -0.52849    1.16788   -0.13894
H     -0.09664   -0.47591    0.39450
H     -2.57524    0.34458   -0.83576
H     -2.89775   -0.15589    0.84312
H     -0.12897    1.04930    2.16831
H     -2.85046   -1.97450   -0.62797
10

C     -0.85935    0.36584    0.46929
C     -2.17468   -0.22024   -0.03374
O     -0.98236    0.62002    1.87557
O     -1.99294   -1.62624   -0.25164
H     -0.63509    1.30252   -0.06082
H     -0.05985   -0.35468    0.25516
H     -2.47157    0.26749   -0.97324
H     -2.94752   -0.02254    0.71980
H     -0.10368    0.83256    2.22534
H     -2.86210   -2.02564   -0.40861
10

C     -0.87863    0.39573    0.47306
C     -2.15674   -0.22401   -0.06445
O     -0.97418    0.48367    1.89974
O     -1.99314   -1.64634   -0.11439
H     -0.75107    1.39992    0.04208
H     -0.03153   -0.22762    0.15843
H     -2.35546    0.16733   -1.07329
H     -2.98697    0.06850    0.59151
H     -0.08489    0.61608    2.26058
H     -2.86836   -2.05473   -0.19050
10

C     -0.89968    0.44721    0.45670
C     -2.13912   -0.20832   -0.11740
O     -0.95541    0.37354    1.88337
O     -2.00727   -1.62735   -0.00399
H     -0.86570    1.49535    0.12205
H     -0.01454   -0.07096    0.06256
H     -2.24175    0.09006   -1.17201
H     -3.01653    0.15828    0.43312
H     -0.06477    0.51983    2.23424
H     -2.88503   -2.02631   -0.09418
10

C     -0.90528    0.45192    0.46478
C     -2.13335   -0.21625   -0.12215
O     -0.87804    0.22959    1.87359
O     -2.07784   -1.61674    0.14337
H     -0.95075    1.52545    0.22369
H     -0.00858    0.02923   -0.01248
H     -2.15323   -0.00819   -1.20333
H     -3.03123    0.22965    0.33116
H     -0.03531    0.56284    2.21574
H     -2.91747   -2.01068   -0.13617
10

C     -0.91135    0.46669    0.46918
C     -2.12780   -0.22083   -0.13707
O     -0.79415    0.10701    1.84318
O     -2.15702   -1.58654    0.26908
H     -1.02951    1.55245    0.33117
H     -0.01024    0.14996   -0.07846
H     -2.07053   -0.11247   -1.23108
H     -3.03889    0.29168    0.20858
H     -0.01381    0.55573    2.20157
H     -2.93929   -1.99736   -0.12840
10

C     -0.92229    0.48943    0.47927
C     -2.11750   -0.23110   -0.16002
O     -0.71218    0.00875    1.80385
O     -2.23593   -1.54814    0.37017
H     -1.11814    1.57182    0.45495
H     -0.02177    0.29910   -0.12500
H     -1.97678   -0.23229   -1.25122
H     -3.03712    0.33387    0.05772
H      0.02646    0.50920    2.18198
H     -2.97816   -1.97829   -0.08049
10

C     -0.93714    0.51049    0.49652
C     -2.10285   -0.24827   -0.18129
O     -0.62886   -0.07380    1.75885
O     -2.31727   -1.50464    0.45547
H     -1.21814    1.56881    0.59906
H     -0.05160    0.46712   -0.15548
H     -1.86955   -0.37112   -1.24899
H     -3.01720    0.36031   -0.11244
H      0.08108    0.45380    2.15495
H     -3.03128   -1.95220   -0.02322
10

C     -0.95547    0.51893    0.52315
C     -2.08362   -0.27422   -0.18985
O     -0.54363   -0.15245    1.71066
O     -2.40085   -1.45819    0.53688
H     -1.32262    1.52828    0.75968
H     -0.10723    0.63344   -0.16781
H     -1.75515   -0.52499   -1.20904
H     -2.97054    0.36997   -0.28166
H      0.15681    0.38235    2.11402
H     -3.10538   -1.91276    0.05074
10

C     -0.98207    0.54081    0.53331
C     -2.05765   -0.28376   -0.21273
O     -0.46372   -0.19810    1.63567
O     -2.48212   -1.38579    0.58427
H     -1.43346    1.47647    0.89659
H     -0.18998    0.81302   -0.17939
H     -1.63507   -0.65450   -1.15887
H     -2.89746    0.37978   -0.46549
H      0.22720    0.34356    2.04610
H     -3.17714   -1.84717    0.09101
10

C     -1.00818    0.54971    0.54707
C     -2.03134   -0.29650   -0.22254
O     -0.37857   -0.23934    1.55243
O     -2.56927   -1.30556    0.62728
H     -1.52601    1.39853    1.02002
H     -0.28599    0.95915   -0.17492
H     -1.53262   -0.77063   -1.08207
H     -2.80867    0.37531   -0.61612
H      0.28124    0.31901    1.99048
H     -3.23267   -1.79352    0.11660
10

C     -1.02866    0.54223    0.57034
C     -2.00936   -0.31847   -0.21542
O     -0.28414   -0.27827    1.46670
O     -2.66590   -1.22337    0.66838
H     -1.59098    1.30049    1.13695
H     -0.38181    1.06603   -0.15014
H     -1.45702   -0.88097   -0.98401
H     -2.71710    0.35184   -0.72695
H      0.32838    0.29374    1.95285
H     -3.28035   -1.75746    0.14311
10

C     -1.04459    0.55139    0.57313
C     -1.99378   -0.32077   -0.22529
O     -0.18467   -0.27999    1.35047
O     -2.77096   -1.11220    0.67168
H     -1.63388    1.21562    1.22278
H     -0.47601    1.17578   -0.13364
H     -1.40568   -0.96177   -0.89891
H     -2.62771    0.33644   -0.84080
H      0.33632    0.28863    1.93661
H     -3.28885   -1.74147    0.14812
10

C     -1.04976    0.54826    0.58158
C     -1.98804   -0.32885   -0.22218
O     -0.07893   -0.28017    1.22585
O     -2.88276   -0.99301    0.67352
H     -1.64129    1.11615    1.31293
H     -0.56184    1.26239   -0.09943
H     -1.38879   -1.04817   -0.79729
H     -2.54463    0.30372   -0.93062
H      0.32566    0.22350    1.94724
H     -3.27446   -1.74945    0.21292
10

C     -1.06840    0.54308    0.61152
C     -1.96767   -0.35765   -0.21705
O      0.01090   -0.23953    1.13625
O     -2.97893   -0.90932    0.63484
H     -1.67066    0.99514    1.41019
H     -0.67310    1.34882   -0.02477
H     -1.34857   -1.13988   -0.67507
H     -2.43412    0.23188   -1.02032
H      0.40626    0.23924    1.87982
H     -3.35907   -1.68664    0.19928
10

C     -1.09138    0.51744    0.66905
C     -1.94055   -0.41312   -0.19091
O      0.08712   -0.18998    1.07890
O     -3.06033   -0.85743    0.58753
H     -1.69477    0.83399    1.52923
H     -0.80906    1.41103    0.09414
H     -1.31051   -1.25229   -0.51187
H     -2.29551    0.11786   -1.08578
H      0.54124    0.33826    1.75295
H     -3.50505   -1.56986    0.10351
10

C     -0.83280    0.06639    0.75490
C     -2.17185   -0.49694    0.27509
O     -1.03398    1.43350    1.14038
O     -2.01901   -0.91618   -1.08834
H     -0.11921   -0.01278   -0.07509
H     -0.44442   -0.51429    1.60298
H     -2.92199    0.29897    0.36559
H     -2.48744   -1.34385    0.89992
H     -0.17552    1.80645    1.39314
H     -2.88084   -1.22296   -1.40937
10

C     -0.82916    0.09786    0.70635
C     -2.17952   -0.44967    0.24240
O     -1.05018    1.40414    1.25534
O     -1.99555   -1.02919   -1.05641
H     -0.17289    0.14789   -0.17237
H     -0.36400   -0.56524    1.44826
H     -2.88133    0.39351    0.19955
H     -2.57302   -1.19171    0.95024
H     -0.20404    1.73858    1.58972
H     -2.83904   -1.41559   -1.33718
10

C     -0.82773    0.12311    0.66514
C     -2.18428   -0.40942    0.21603
O     -1.05972    1.34844    1.37113
O     -1.97740   -1.14250   -0.99783
H     -0.22278    0.29744   -0.23501
H     -0.30556   -0.60937    1.29536
H     -2.84214    0.45365    0.04585
H     -2.63692   -1.04053    0.99269
H     -0.21600    1.64924    1.74077
H     -2.81502   -1.56289   -1.24408
10

C     -0.82703    0.15173    0.62227
C     -2.18857   -0.36759    0.18622
O     -1.05881    1.27790    1.47630
O     -1.96947   -1.24524   -0.92422
H     -0.26430    0.44311   -0.27542
H     -0.26629   -0.63874    1.13952
H     -2.80996    0.49131   -0.10288
H     -2.68258   -0.88595    1.01934
H     -0.20492    1.57526    1.82397
H     -2.81819   -1.64409   -1.16718
10

C     -0.82733    0.17440    0.59359
C     -2.19086   -0.33968    0.16271
O     -1.05395    1.18391    1.58324
O     -1.96424   -1.34919   -0.82694
H     -0.29948    0.57967   -0.28078
H     -0.23650   -0.65940    0.99745
H     -2.78188    0.49397   -0.24116
H     -2.71850   -0.74493    1.03723
H     -0.19394    1.52367    1.87166
H     -2.82417   -1.69056   -1.11369
